216
Unit cell from CRYSTAL Z:\home\aurele\Phd\XTB\Stefano_Master_Thesis_work\nh3_slab_opt.out for geometry N: 94
H -3.1502596429   5.3883246159   -5.3627872719
H -3.9494233291   -5.2276673732   -3.3251795478
O -6.5763912142   4.7807422022   -5.4354031444
O -0.5146167756   -4.4849559131   -3.3511473429
O -3.8257294059   4.6731520254   -5.4942941755
O -3.3801845839   -4.4490369788   -3.3116823436
H -5.5948125449   4.8435707177   -5.4455436865
H -1.4819236881   -4.5933808608   -3.3168843227
H -6.8105955233   4.2668071257   -4.6279166757
H -0.2919971303   -4.0040698593   -6.9930255322
H -3.5719384119   4.1912600575   -6.3177561755
H -3.6168337537   -3.9289276541   -4.1287927288
H -0.0551031123   3.7361322082   -6.9360468883
H -7.1020382711   -3.4276924406   -4.6113680730
H -3.3976407179   3.7080619586   -4.0956837401
H -3.7770845486   -3.4860404726   -6.3202853687
O -0.3395968809   3.2453816282   -3.2775194964
O -6.8000925495   -2.9382906349   -5.4247447062
O -3.0573999990   3.2892145154   -3.2683930245
O -4.0565115471   -3.0580046191   -5.4801866405
H -1.3274411996   3.2718381833   -3.2616018181
H -5.8178045404   -2.9904299654   -5.4311156364
H -3.4002697158   2.3602270509   -3.2449344104
H -3.6991940570   -2.1304782725   -5.4783140667
H -6.9396917621   1.8042269287   -3.1828368976
H -0.1858756015   -1.5215174089   -5.5245679827
O -3.9661909668   0.7470573486   -3.1889423454
O -3.1583406878   -0.5361626179   -5.4359232791
O -6.6475242551   0.8579477466   -3.1732986877
O -0.4842499105   -0.5737986030   -5.5070756873
H -4.9570922917   0.7740611953   -3.1678786761
H -2.1657962901   -0.5320262731   -5.4442451635
H -3.7064240528   0.3056578969   -6.8413033783
H -3.4409813361   -0.0762748697   -4.6063049943
H -6.9883354597   0.4365499549   -4.0014386505
H -0.1597480574   -0.1454409175   -6.3368492489
H 3.9251422401   5.1799473629   -5.4640875252
H 3.1259785539   -5.4360446262   -3.4264798011
O 0.4990106688   4.5723649492   -5.5367033977
O 6.5607851074   -4.6933331660   -3.4524475963
O 3.2496724771   4.4647747724   -5.5955944289
O 3.6952172991   -4.6574142318   -3.4129825969
H 1.4805893381   4.6351934647   -5.5468439398
H 5.5934781950   -4.8017581138   -3.4181845760
H 0.2648063597   4.0584298728   -4.7292169291
H 6.7834047527   -4.2124471122   -7.0943257855
H 3.5034634711   3.9828828046   -6.4190564288
H 3.4585681293   -4.1373049071   -4.2300929821
H 7.0202987707   3.5277549553   -7.0373471416
H -0.0266363881   -3.6360696936   -4.7126683263
H 3.6777611651   3.4996847057   -4.1969839935
H 3.2983173344   -3.6944177256   -6.4215856221
O 6.7358050021   3.0370043753   -3.3788197498
O 0.2753093335   -3.1466678879   -5.5260449596
O 4.0180018840   3.0808372624   -3.3696932779
O 3.0188903359   -3.2663818721   -5.5814868939
H 5.7479606834   3.0634609303   -3.3629020715
H 1.2575973426   -3.1988072184   -5.5324158897
H 3.6751321672   2.1518497980   -3.3462346638
H 3.3762078260   -2.3388555254   -5.5796143200
H 0.1357101209   1.5958496757   -3.2841371509
H 6.8895262815   -1.7298946619   -5.6258682360
O 3.1092109162   0.5386800957   -3.2902425988
O 3.9170611953   -0.7445398708   -5.5372235325
O 0.4278776279   0.6495704937   -3.2745989411
O 6.5911519725   -0.7821758559   -5.6083759407
H 2.1183095914   0.5656839423   -3.2691789295
H 4.9096055930   -0.7404035261   -5.5455454168
H 3.3689778302   0.0972806440   -6.9426036317
H 3.6344205470   -0.2846521226   -4.7076052476
H 0.0870664234   0.2281727020   -4.1027389038
H 6.9156538257   -0.3538181705   -6.4381495023
H -3.1208430637   5.3634664299   -0.8877139340
H -3.9200067499   -5.2525255592   1.1498937901
O -6.5469746349   4.7558840162   -0.9603298065
O -0.4852001964   -4.5098140990   1.1239259950
O -3.7963128267   4.6482938394   -1.0192208376
O -3.3507680047   -4.4738951648   1.1633909943
H -5.5653959657   4.8187125317   -0.9704703486
H -1.4525071088   -4.6182390468   1.1581890152
H -6.7811789440   4.2419489397   -0.1528433378
H -0.2625805510   -4.0289280453   -2.5179521943
H -3.5425218327   4.1664018716   -1.8426828376
H -3.5874171745   -3.9537858401   0.3462806091
H -0.0256865331   3.7112740222   -2.4609735504
H -7.0726216918   -3.4525506266   -0.1362947351
H -3.3682241387   3.6832037726   0.3793895978
H -3.7476679693   -3.5108986586   -1.8452120308
O -0.3101803017   3.2205234422   1.1975538415
O -6.7706759703   -2.9631488209   -0.9496713683
O -3.0279834197   3.2643563294   1.2066803134
O -4.0270949679   -3.0828628051   -1.0051133026
H -1.2980246204   3.2469799973   1.2134715198
H -5.7883879612   -3.0152881514   -0.9560422985
H -3.3708531366   2.3353688649   1.2301389275
H -3.6697774777   -2.1553364585   -1.0032407288
H -6.9102751828   1.7793687427   1.2922364403
H -0.1564590223   -1.5463755949   -1.0494946448
O -3.9367743876   0.7221991626   1.2861309925
O -3.1289241085   -0.5610208039   -0.9608499412
O -6.6181076758   0.8330895606   1.3017746502
O -0.4548333313   -0.5986567890   -1.0320023494
H -4.9276757124   0.7492030093   1.3071946618
H -2.1363797108   -0.5568844591   -0.9691718256
H -3.6770074735   0.2807997109   -2.3662300404
H -3.4115647568   -0.1011330557   -0.1312316564
H -6.9589188804   0.4116917689   0.4736346874
H -0.1303314781   -0.1702991035   -1.8617759110
H 3.9545588193   5.1550891769   -0.9890141873
H 3.1553951332   -5.4609028122   1.0485935368
O 0.5284272481   4.5475067632   -1.0616300598
O 6.5902016867   -4.7181913520   1.0226257416
O 3.2790890564   4.4399165865   -1.1205210910
O 3.7246338784   -4.6822724178   1.0620907410
H 1.5100059174   4.6103352787   -1.0717706019
H 5.6228947742   -4.8266162998   1.0568887619
H 0.2942229390   4.0335716868   -0.2541435912
H 6.8128213320   -4.2373052982   -2.6192524476
H 3.5328800504   3.9580246186   -1.9439830909
H 3.4879847086   -4.1621630931   0.2449803558
H 7.0497153499   3.5028967693   -2.5622738037
H 0.0027801912   -3.6609278796   -0.2375949884
H 3.7071777444   3.4748265197   0.2780893444
H 3.3277339137   -3.7192759116   -1.9465122842
O 6.7652215814   3.0121461893   1.0962535881
O 0.3047259128   -3.1715260739   -1.0509716217
O 4.0474184633   3.0559790764   1.1053800600
O 3.0483069151   -3.2912400580   -1.1064135560
H 5.7773772626   3.0386027443   1.1121712664
H 1.2870139219   -3.2236654043   -1.0573425518
H 3.7045487465   2.1269916120   1.1288386741
H 3.4056244053   -2.3637137114   -1.1045409821
H 0.1651267002   1.5709914897   1.1909361870
H 6.9189428608   -1.7547528479   -1.1507948981
O 3.1386274954   0.5138219097   1.1848307391
O 3.9464777745   -0.7693980568   -1.0621501946
O 0.4572942072   0.6247123077   1.2004743969
O 6.6205685518   -0.8070340419   -1.1333026028
H 2.1477261706   0.5408257563   1.2058944084
H 4.9390221722   -0.7652617121   -1.0704720789
H 3.3983944095   0.0724224580   -2.4675302938
H 3.6638371262   -0.3095103086   -0.2325319097
H 0.1164830026   0.2033145160   0.3723344341
H 6.9450704049   -0.3786763565   -1.9630761644
H -3.0914264844   5.3386082439   3.5873594039
H -3.8905901706   -5.2773837452   5.6249671280
O -6.5175580557   4.7310258302   3.5147435314
O -0.4557836171   -4.5346722850   5.5989993329
O -3.7668962474   4.6234356534   3.4558525003
O -3.3213514254   -4.4987533508   5.6384643322
H -5.5359793864   4.7938543457   3.5046029893
H -1.4230905295   -4.6430972328   5.6332623531
H -6.7517623648   4.2170907537   4.3222300001
H -0.2331639718   -4.0537862313   1.9571211436
H -3.5131052534   4.1415436856   2.6323905003
H -3.5580005952   -3.9786440261   4.8213539470
H 0.0037300462   3.6864158362   2.0140997875
H -7.0432051126   -3.4774088126   4.3387786028
H -3.3388075594   3.6583455866   4.8544629357
H -3.7182513901   -3.5357568446   2.6298613071
O -0.2807637224   3.1956652562   5.6726271794
O -6.7412593910   -2.9880070069   3.5254019696
O -2.9985668405   3.2394981434   5.6817536513
O -3.9976783886   -3.1077209911   3.4699600353
H -1.2686080411   3.2221218113   5.6885448577
H -5.7589713819   -3.0401463374   3.5190310394
H -3.3414365573   2.3105106789   5.7052122654
H -3.6403608985   -2.1801946445   3.4718326091
H -6.8808586036   1.7545105567   5.7673097782
H -0.1270424430   -1.5712337809   3.4255786931
O -3.9073578083   0.6973409766   5.7612043304
O -3.0995075293   -0.5858789899   3.5142233967
O -6.5886910966   0.8082313746   5.7768479881
O -0.4254167520   -0.6235149750   3.4430709885
H -4.8982591331   0.7243448233   5.7822679997
H -2.1069631316   -0.5817426451   3.5059015123
H -3.6475908943   0.2559415249   2.1088432975
H -3.3821481775   -0.1259912417   4.3438416815
H -6.9295023012   0.3868335829   4.9487080253
H -0.1009148988   -0.1951572895   2.6132974269
H 3.9839753986   5.1302309910   3.4860591506
H 3.1848117124   -5.4857609982   5.5236668747
O 0.5578438274   4.5226485772   3.4134432781
O 6.6196182659   -4.7430495380   5.4976990795
O 3.3085056356   4.4150584005   3.3545522469
O 3.7540504576   -4.7071306038   5.5371640789
H 1.5394224966   4.5854770927   3.4033027360
H 5.6523113535   -4.8514744857   5.5319620998
H 0.3236395183   4.0087135008   4.2209297467
H 6.8422379113   -4.2621634842   1.8558208903
H 3.5622966296   3.9331664326   2.5310902470
H 3.5174012878   -4.1870212791   4.7200536937
H 7.0791319292   3.4780385833   1.9127995342
H 0.0321967705   -3.6857860656   4.2374783495
H 3.7365943236   3.4499683337   4.7531626823
H 3.3571504929   -3.7441340976   2.5285610537
O 6.7946381606   2.9872880033   5.5713269260
O 0.3341424920   -3.1963842599   3.4241017162
O 4.0768350426   3.0311208904   5.5804533979
O 3.0777234944   -3.3160982440   3.3686597819
H 5.8067938419   3.0137445584   5.5872446043
H 1.3164305011   -3.2485235903   3.4177307861
H 3.7339653257   2.1021334260   5.6039120120
H 3.4350409845   -2.3885718974   3.3705323558
H 0.1945432794   1.5461333037   5.6660095249
H 6.9483594400   -1.7796110339   3.3242784398
O 3.1680440747   0.4889637237   5.6599040770
O 3.9758943538   -0.7942562428   3.4129231433
O 0.4867107865   0.5998541217   5.6755477348
O 6.6499851310   -0.8318922279   3.3417707351
H 2.1771427499   0.5159675703   5.6809677463
H 4.9684387515   -0.7901198981   3.4046012590
H 3.4278109887   0.0475642720   2.0075430442
H 3.6932537055   -0.3343684946   4.2425414282
H 0.1458995819   0.1784563300   4.8474077720
H 6.9744869842   -0.4035345425   2.5119971735
