720
Unit cell from CRYSTAL C:\Users\Renzetti\Desktop\Tesis\AMORPHOUS_ICE\NH3_AMORFO\nh3_h135_bottom.out for geometry N: 156
O -18.8560344767   -1.5118955651   1.7617187970
H -19.3640683206   -1.0305797135   1.0804722684
H -18.0208585497   -1.8159191725   1.3123435146
O -17.9011521981   4.9034794927   0.8923362324
H -18.4643731690   5.5458930609   0.4271106461
H -16.9651920731   5.0507948175   0.5684927544
O -16.4959345048   0.9183701090   6.2996097788
H -17.2175568968   1.4281834376   5.8582162117
H -16.5921668730   1.1510979625   -2.7683783509
O -16.0981504383   1.9904540871   -1.2399280754
H -15.3731003524   1.5809871827   -0.7077009664
H -15.7022083981   2.7949163067   -1.6496977735
O -18.5694910696   4.6326750623   3.5685816368
H -18.3211338757   4.6987654401   2.6148832625
H -18.2684446860   5.4535346676   3.9939490276
O -14.3308374157   -1.4535418047   0.7446073911
H -14.7166204708   -1.3681978061   1.6516128436
H -13.4801608422   -1.9362934780   0.8374040846
O 0.1015758221   0.0530931069   7.9678144423
H -19.2081222884   -0.3662343135   3.0666537669
H -0.7952498816   -0.0427025686   7.5727460026
O -18.2071710573   2.1681823714   0.4175802557
H -18.2949977898   3.1296264805   0.6019941116
H -17.4870155285   2.0825935487   -0.2572748464
O -15.4808657091   5.2982599540   -0.0869948278
H -15.2873459963   5.0443001823   -1.0124033573
H -14.6642468500   5.1298275306   0.4387066340
O -16.9205147590   -2.2723966563   0.1317452130
H -15.9668518356   -2.0499941799   0.1109425423
H -17.3418750463   -2.0007991191   -0.7107182264
O -16.6457196033   -1.6615400665   5.3157678529
H -16.5844098669   -0.8098244956   5.8079727683
H -17.5810750773   -1.9415502782   5.3637219110
O -14.3273812110   2.4037614866   2.7050887734
H -15.2846483174   2.1657313822   2.6504036051
H -14.0902747121   2.3453149642   3.6601708043
O -13.9510277827   1.1403277082   0.2275565781
H -13.9663177438   1.4962277632   1.1437200006
H -14.0168768905   0.1528041085   0.2965609639
O -16.8030840222   1.3949692958   2.6547079424
H -17.3644221493   1.5564284616   1.8597664263
H -17.3176251352   1.6613019300   3.4523048395
O -14.1814303818   2.0925944067   5.4591530518
H -15.0033534224   1.5875417058   5.6802769919
H -13.4187537427   1.5348240107   5.7257952884
O -12.3818068215   3.0280502280   -0.9314239431
H -12.5092460250   3.6590077757   -0.1819615569
H -12.8853261169   2.2192345768   -0.6640363370
O -18.3519720629   2.1817288076   4.7591753449
H -18.5242604725   3.1015415688   4.4489887425
H -19.0737971781   1.5888841599   4.4462941067
O -14.5691488031   3.9060076038   -2.4614166882
H -14.3838138942   3.5203844103   6.6605958128
H -13.7049613524   3.7181436561   -2.0350075279
O -15.2456441667   -0.8203811788   3.1894942441
H -15.7177396442   -1.3165843206   3.9064252511
H -15.8109673556   -0.0433065074   2.9703642662
O -13.2386933434   4.4091972292   1.3112102794
H -13.6666455645   3.6827470629   1.8386295996
H -12.6370358005   4.8555427378   1.9393459566
O -11.5301742437   4.2172900389   3.6911673184
H -11.3887918402   3.3063956982   3.3338443769
H -11.5869096115   4.1175716727   4.6646685151
O -11.8089638757   -2.5234536186   1.2153496043
H -11.8254462842   -3.4198384453   0.8357998043
H -11.2114794284   -1.9663765304   0.6316024289
O -7.4070419007   3.3837036553   2.7518249754
H -6.9525851194   3.8689112416   3.4668638123
H -7.7209793460   2.5334281527   3.1365007654
O -11.0191546846   1.7064466972   2.7277076013
H -11.6472265958   0.9678452320   2.8976205470
H -10.7412418140   1.6667266521   1.7782723241
O -10.1761706485   1.6007371364   0.1609862483
H -9.2460710308   1.9669789431   0.1001642958
H -10.7676059282   2.1426188438   -0.3992174087
O -12.5473316729   -0.5221977487   3.3425875181
H -13.5380155518   -0.5685773726   3.3648931782
H -12.2349166000   -1.3109074545   2.8563192558
O -7.4441205500   5.2152769898   5.0364483163
H -7.0524133455   6.0030623363   5.4485374945
H -8.1427768015   5.5151168758   4.3947642007
O -7.5407930168   0.6407223879   7.3092839538
H -6.6325413732   0.4055936584   7.0348453057
H -7.7149971127   1.5713752443   7.0397514713
O -9.3066013372   -3.2123165096   2.6131888852
H -10.2268110366   -3.0766189429   2.3155197496
H -9.1926465505   -2.6494656428   3.4160663734
O -11.8233801724   0.5912848960   5.8247651020
H -11.1594107511   0.0809652311   6.3526319446
H -11.9526806596   0.1229318813   4.9720161879
O -11.1701433895   3.1867696060   6.3933638866
H -11.4827188264   3.2879232654   7.3171045044
H -11.4048230105   2.2665465872   6.1198479256
O -9.8207511079   -0.7309502948   7.0831879848
H -8.9746810131   -0.2201507585   7.1793111120
H -10.1649170548   -1.0990702695   -2.0365372249
O -8.4546209203   2.9384897751   6.1425179360
H -9.3966698238   3.1478168940   6.3392644502
H -8.0081821952   3.7720960885   5.8652299073
O -7.8055410558   -1.9830231312   0.7542223867
H -8.2115795561   -2.5612580615   1.4470541651
H -7.1448236494   -2.4918136583   0.2279338347
O -8.9177403423   -1.4376143386   4.6291629410
H -9.3344125599   -1.4215211408   5.5206979914
H -8.7815950253   -0.4947782637   4.3595039098
O -9.2334786786   5.5807190155   3.1118860758
H -10.1242234239   5.2073962338   3.3252036383
H -8.7838436368   4.9060638845   2.5651964837
O -10.1469314791   -1.0913609402   -0.2199584981
H -10.2000226841   -0.1122166712   -0.0817617847
H -9.2330925900   -1.3788419659   0.0353141523
O -8.6669254639   1.2187813820   4.0286526692
H -9.5390998057   1.4198129288   3.6107031064
H -8.6005207493   1.7506565414   4.8581048389
O -6.4464918701   0.3075432989   1.3071146160
H -6.1774555820   0.3877551832   2.2478501399
H -7.0149514442   -0.4960089923   1.2151027729
O -7.7061733805   2.4854224783   0.1758041911
H -7.5513140217   3.1017405751   0.9227549610
H -7.1768281871   1.6873577189   0.4080191676
O -2.7357445466   -2.4708582338   4.4757646397
H -2.4668511738   -2.1622937962   5.3656436621
H -2.8056787738   -1.6549917326   3.9219099842
O -3.6953289863   -4.0523995098   0.9663527791
H -2.9816430551   -4.7251814166   1.0726446608
H -4.1878111128   -4.0730167688   1.8240754618
O -19.6936653195   -1.4520968330   -4.1999329834
H -0.7546692969   -1.7679147713   0.3204438073
H -19.5682259788   -0.7592140653   5.0948757862
O -3.3119340528   -6.4169471510   4.1573178748
H -3.0268947964   -6.0172787432   5.0076346906
H -4.0713339098   -5.8623917628   3.8757158620
O -1.8128321615   -5.7754176298   1.9575313865
H -2.2892404994   -6.1605063856   2.7321311321
H -1.2829584027   -6.4854916888   1.5223342513
O -0.2793970679   0.2168734988   4.1091951735
H -19.6681839675   -0.2809297979   -0.7953472331
H -19.5548747941   1.0986731741   0.0002726617
O -4.9208546843   -2.9807239055   6.7437391044
H -5.5164823649   -2.9442413088   5.9591195498
H -4.1753634082   -3.5970927849   6.5548586434
O -1.9862690403   -0.4384081142   6.2803256567
H -1.5402180018   -0.0618364534   5.4906898878
H -2.9063082299   -0.0975614352   6.3392702443
O -6.3726561130   -2.3361646887   4.5280407132
H -7.3383080778   -2.1523553298   4.6119496134
H -5.9567107713   -1.4963650728   4.2261614427
O -2.5332387555   -1.6008912886   0.6822625609
H -3.1514031205   -1.1068477343   0.0935446971
H -2.9188197468   -2.5056922057   0.7976754952
O -5.7219085959   -3.0623890137   -0.6568581326
H -5.0216995468   -3.5757410920   -0.1946069689
H -5.4638079849   -3.1420539981   8.3845957225
O -5.2452035775   0.1113631676   3.8678907410
H -4.3162704447   0.0724194014   3.5280225262
H -5.2054482874   0.4664030861   4.7775766618
O -0.3059481574   -4.1046695288   6.1016418882
H -19.7506280351   -3.1194071656   2.0138880084
H -0.1508537127   -4.2155497896   5.1387591631
O -4.6946580638   -4.1317413053   3.4719717165
H -5.5285433031   -3.6696694737   3.7182948433
H -3.9786109018   -3.6295711579   3.9242046647
O -18.8931191809   -1.5283201429   -1.6463649646
H -19.0045669353   -1.3989260456   -2.6189254238
H -19.3806735282   -2.3605209588   -1.4276094538
O -0.5770197949   -3.7862174848   3.3464045922
H -0.8766614075   -4.5151872269   2.7512832485
H -1.3895680921   -3.3566599500   3.6954979797
O -2.7178524244   -0.2288716181   2.9739232495
H -2.5972410929   -0.6579832950   2.0877150401
H -1.8638990517   0.1669148070   3.2593537363
O -2.8167795364   -4.8210214017   6.5179715433
H -2.8230164603   -5.3333587081   7.3453296455
H -1.8798291742   -4.4926758611   6.3968661045
O -4.7214405973   -0.1421071674   6.7546847669
H -4.6126010260   0.0022194399   7.7273308065
H -4.7888409604   -1.1214311090   6.6725297956
O -4.6882753508   -0.5072986763   -0.5845119351
H -5.1203659821   -1.3936463534   -0.6234037880
H -5.2079807213   0.0033189045   0.0824539747
O -18.9922209398   -1.5370095292   -8.2549192482
H -19.5002547836   -1.0556936776   -8.9361657769
H -18.1570450127   -1.8410331366   -8.7042945307
O -18.0373386611   4.8783655286   -9.1243018129
H -18.6005596321   5.5207790968   -9.5895273991
H -17.1013785362   5.0256808534   -9.4481452909
O -16.6321209678   0.8932561449   -3.7170282665
H -17.3537433599   1.4030694735   -4.1584218336
H -16.7283533361   1.1259839984   -12.7850163961
O -16.2343369014   1.9653401230   -11.2565661207
H -15.5092868155   1.5558732186   -10.7243390116
H -15.8383948611   2.7698023426   -11.6663358188
O -18.7056775327   4.6075610982   -6.4480564085
H -18.4573203388   4.6736514760   -7.4017547828
H -18.4046311491   5.4284207035   -6.0226890176
O -14.4670238787   -1.4786557688   -9.2720306542
H -14.8528069339   -1.3933117702   -8.3650252016
H -13.6163473053   -1.9614074421   -9.1792339607
O -0.0346106410   0.0279791428   -2.0488236030
H -19.3443087514   -0.3913482776   -6.9499842783
H -0.9314363447   -0.0678165327   -2.4438920427
O -18.3433575204   2.1430684073   -9.5990577895
H -18.4311842529   3.1045125164   -9.4146439337
H -17.6232019916   2.0574795846   -10.2739128917
O -15.6170521722   5.2731459899   -10.1036328731
H -15.4235324594   5.0191862182   -11.0290414026
H -14.8004333131   5.1047135665   -9.5779314113
O -17.0567012221   -2.2975106204   -9.8848928322
H -16.1030382987   -2.0751081440   -9.9056955030
H -17.4780615094   -2.0259130832   -10.7273562717
O -16.7819060664   -1.6866540306   -4.7008701924
H -16.7205963300   -0.8349384597   -4.2086652770
H -17.7172615404   -1.9666642423   -4.6529161343
O -14.4635676740   2.3786475225   -7.3115492719
H -15.4208347805   2.1406174181   -7.3662344401
H -14.2264611752   2.3202010001   -6.3564672410
O -14.0872142457   1.1152137441   -9.7890814672
H -14.1025042069   1.4711137991   -8.8729180447
H -14.1530633536   0.1276901444   -9.7200770813
O -16.9392704852   1.3698553317   -7.3619301028
H -17.5006086123   1.5313144975   -8.1568716190
H -17.4538115983   1.6361879659   -6.5643332058
O -14.3176168449   2.0674804426   -4.5574849935
H -15.1395398855   1.5624277417   -4.3363610533
H -13.5549402058   1.5097100466   -4.2908427569
O -12.5179932846   3.0029362639   -10.9480619883
H -12.6454324880   3.6338938116   -10.1985996022
H -13.0215125800   2.1941206127   -10.6806743823
O -18.4881585260   2.1566148435   -5.2574627004
H -18.6604469356   3.0764276047   -5.5676493027
H -19.2099836412   1.5637701958   -5.5703439386
O -14.7053352662   3.8808936397   -12.4780547335
H -14.5200003573   3.4952704462   -3.3560422325
H -13.8411478155   3.6930296920   -12.0516455732
O -15.3818306298   -0.8454951429   -6.8271438011
H -15.8539261073   -1.3416982847   -6.1102127942
H -15.9471538187   -0.0684204715   -7.0462737791
O -13.3748798065   4.3840832651   -8.7054277659
H -13.8028320275   3.6576330988   -8.1780084457
H -12.7732222636   4.8304287737   -8.0772920886
O -11.6663607068   4.1921760748   -6.3254707269
H -11.5249783032   3.2812817340   -6.6827936683
H -11.7230960746   4.0924577086   -5.3519695302
O -11.9451503388   -2.5485675827   -8.8012884410
H -11.9616327473   -3.4449524094   -9.1808382410
H -11.3476658915   -1.9914904945   -9.3850356164
O -7.5432283638   3.3585896912   -7.2648130698
H -7.0887715824   3.8437972775   -6.5497742329
H -7.8571658091   2.5083141886   -6.8801372799
O -11.1553411477   1.6813327331   -7.2889304440
H -11.7834130588   0.9427312679   -7.1190174983
H -10.8774282771   1.6416126880   -8.2383657211
O -10.3123571116   1.5756231723   -9.8556517970
H -9.3822574939   1.9418649790   -9.9164737495
H -10.9037923913   2.1175048797   -10.4158554540
O -12.6835181360   -0.5473117128   -6.6740505272
H -13.6742020149   -0.5936913367   -6.6517448671
H -12.3711030631   -1.3360214186   -7.1603187895
O -7.5803070131   5.1901630256   -4.9801897289
H -7.1885998085   5.9779483722   -4.5681005508
H -8.2789632646   5.4900029117   -5.6218738446
O -7.6769794799   0.6156084238   -2.7073540914
H -6.7687278363   0.3804796943   -2.9817927396
H -7.8511835758   1.5462612802   -2.9768865740
O -9.4427878003   -3.2374304737   -7.4034491600
H -10.3629974997   -3.1017329070   -7.7011182957
H -9.3288330136   -2.6745796069   -6.6005716719
O -11.9595666355   0.5661709319   -4.1918729433
H -11.2955972142   0.0558512670   -3.6640061007
H -12.0888671227   0.0978179172   -5.0446218574
O -11.3063298526   3.1616556419   -3.6232741586
H -11.6189052895   3.2628093013   -2.6995335409
H -11.5410094736   2.2414326231   -3.8967901196
O -9.9569375710   -0.7560642589   -2.9334500604
H -9.1108674762   -0.2452647226   -2.8373269333
H -10.3011035179   -1.1241842336   -12.0531752701
O -8.5908073834   2.9133758110   -3.8741201092
H -9.5328562869   3.1227029299   -3.6773735951
H -8.1443686583   3.7469821244   -4.1514081380
O -7.9417275188   -2.0081370953   -9.2624156586
H -8.3477660192   -2.5863720256   -8.5695838802
H -7.2810101125   -2.5169276224   -9.7887042106
O -9.0539268054   -1.4627283027   -5.3874751043
H -9.4705990229   -1.4466351050   -4.4959400538
H -8.9177814884   -0.5198922278   -5.6571341355
O -9.3696651417   5.5556050514   -6.9047519694
H -10.2604098869   5.1822822697   -6.6914344070
H -8.9200300999   4.8809499204   -7.4514415616
O -10.2831179422   -1.1164749043   -10.2365965434
H -10.3362091471   -0.1373306353   -10.0983998300
H -9.3692790531   -1.4039559301   -9.9813238930
O -8.8031119270   1.1936674179   -5.9879853761
H -9.6752862688   1.3946989647   -6.4059349389
H -8.7367072124   1.7255425773   -5.1585332064
O -6.5826783332   0.2824293348   -8.7095234293
H -6.3136420450   0.3626412191   -7.7687879054
H -7.1511379072   -0.5211229564   -8.8015352724
O -7.8423598435   2.4603085142   -9.8408338541
H -7.6875004848   3.0766266110   -9.0938830842
H -7.3130146502   1.6622437548   -9.6086188777
O -2.8719310097   -2.4959721979   -5.5408734055
H -2.6030376369   -2.1874077603   -4.6509943832
H -2.9418652369   -1.6801056967   -6.0947280611
O -3.8315154494   -4.0775134739   -9.0502852662
H -3.1178295182   -4.7502953807   -8.9439933845
H -4.3239975759   -4.0981307329   -8.1925625834
O -19.8298517826   -1.4772107971   -14.2165710286
H -0.8908557599   -1.7930287354   -9.6961942380
H -19.7044124419   -0.7843280294   -4.9217622591
O -3.4481205158   -6.4420611151   -5.8593201705
H -3.1630812595   -6.0423927073   -5.0090033547
H -4.2075203729   -5.8875057269   -6.1409221832
O -1.9490186245   -5.8005315939   -8.0591066588
H -2.4254269624   -6.1856203497   -7.2845069132
H -1.4191448658   -6.5106056529   -8.4943037940
O -0.4155835310   0.1917595347   -5.9074428718
H -19.8043704306   -0.3060437620   -10.8119852784
H -19.6910612572   1.0735592100   -10.0163653835
O -5.0570411474   -3.0058378696   -3.2728989408
H -5.6526688280   -2.9693552729   -4.0575184955
H -4.3115498713   -3.6222067490   -3.4617794018
O -2.1224555034   -0.4635220783   -3.7363123885
H -1.6764044649   -0.0869504175   -4.5259481575
H -3.0424946930   -0.1226753993   -3.6773678010
O -6.5088425761   -2.3612786528   -5.4885973321
H -7.4744945409   -2.1774692939   -5.4046884319
H -6.0928972344   -1.5214790369   -5.7904766026
O -2.6694252185   -1.6260052527   -9.3343754843
H -3.2875895835   -1.1319616984   -9.9230933482
H -3.0550062098   -2.5308061698   -9.2189625501
O -5.8580950590   -3.0875029778   -10.6734961779
H -5.1578860099   -3.6008550561   -10.2112450142
H -5.5999944479   -3.1671679622   -1.6320423228
O -5.3813900406   0.0862492035   -6.1487473042
H -4.4524569078   0.0473054373   -6.4886155191
H -5.3416347504   0.4412891220   -5.2390613835
O -0.4421346205   -4.1297834929   -3.9149961571
H -19.8868144982   -3.1445211297   -8.0027500368
H -0.2870401758   -4.2406637537   -4.8778788821
O -4.8308445269   -4.1568552694   -6.5446663288
H -5.6647297661   -3.6947834378   -6.2983432020
H -4.1147973649   -3.6546851220   -6.0924333806
O -19.0293056440   -1.5534341070   -11.6630030099
H -19.1407533983   -1.4240400098   -12.6355634691
H -19.5168599913   -2.3856349229   -11.4442474991
O -0.7132062580   -3.8113314489   -6.6702334531
H -1.0128478705   -4.5403011910   -7.2653547967
H -1.5257545551   -3.3817739141   -6.3211400656
O -2.8540388875   -0.2539855822   -7.0427147958
H -2.7334275559   -0.6830972591   -7.9289230051
H -2.0000855147   0.1418008429   -6.7572843090
O -2.9529659995   -4.8461353658   -3.4986665019
H -2.9592029234   -5.3584726722   -2.6713083998
H -2.0160156373   -4.5177898252   -3.6197719408
O -4.8576270603   -0.1672211315   -3.2619532784
H -4.7487874891   -0.0228945242   -2.2893072388
H -4.9250274235   -1.1465450731   -3.3441082497
O -4.8244618139   -0.5324126404   -10.6011499804
H -5.2565524452   -1.4187603175   -10.6400418333
H -5.3441671844   -0.0217950596   -9.9341840706
O 1.0306798206   -1.6514540030   6.0902948698
H 0.5226459767   -1.1701381514   5.4090483411
H 1.8658557476   -1.9554776103   5.6409195873
O 1.9855620992   4.7639210548   5.2209123051
H 1.4223411282   5.4063346230   4.7556867189
H 2.9215222242   4.9112363796   4.8970688271
O 3.3907797925   0.7788116711   10.6281858515
H 2.6691574005   1.2886249997   10.1867922844
H 3.2945474242   1.0115395246   1.5601977219
O 3.7885638590   1.8508956492   3.0886479973
H 4.5136139448   1.4414287448   3.6208751064
H 4.1845058992   2.6553578688   2.6788782992
O 1.3172232277   4.4931166245   7.8971577095
H 1.5655804216   4.5592070022   6.9434593352
H 1.6182696112   5.3139762297   8.3225251004
O 5.5558768816   -1.5931002425   5.0731834638
H 5.1700938265   -1.5077562440   5.9801889163
H 6.4065534551   -2.0758519159   5.1659801573
O 19.9882901193   -0.0864653309   12.2963905150
H 0.6785920089   -0.5057927513   7.3952298396
H 19.0914644156   -0.1822610065   11.9013220753
O 1.6795432400   2.0286239335   4.7461563285
H 1.5917165075   2.9900680426   4.9305701843
H 2.3996987687   1.9430351108   4.0713012263
O 4.4058485881   5.1587015161   4.2415812449
H 4.5993683009   4.9047417444   3.3161727154
H 5.2224674472   4.9902690927   4.7672827067
O 2.9661995383   -2.4119550941   4.4603212858
H 3.9198624616   -2.1895526178   4.4395186150
H 2.5448392509   -2.1403575570   3.6178578463
O 3.2409946940   -1.8010985043   9.6443439256
H 3.3023044304   -0.9493829335   10.1365488410
H 2.3056392199   -2.0811087160   9.6922979837
O 5.5593330863   2.2642030487   7.0336648461
H 4.6020659798   2.0261729443   6.9789796779
H 5.7964395852   2.2057565263   7.9887468770
O 5.9356865146   1.0007692703   4.5561326508
H 5.9203965534   1.3566693253   5.4722960733
H 5.8698374068   0.0132456707   4.6251370367
O 3.0836302751   1.2554108579   6.9832840152
H 2.5222921480   1.4168700237   6.1883424990
H 2.5690891621   1.5217434921   7.7808809122
O 5.7052839155   1.9530359688   9.7877291245
H 4.8833608748   1.4479832679   10.0088530647
H 6.4679605545   1.3952655728   10.0543713611
O 7.5049074758   2.8884917901   3.3971521297
H 7.3774682723   3.5194493378   4.1466145158
H 7.0013881803   2.0796761389   3.6645397357
O 1.5347422344   2.0421703698   9.0877514176
H 1.3624538248   2.9619831309   8.7775648153
H 0.8129171192   1.4493257220   8.7748701794
O 5.3175654942   3.7664491659   1.8671593845
H 5.5029004030   3.3808259725   10.9891718855
H 6.1817529449   3.5785852182   2.2935685448
O 4.6410701306   -0.9599396167   7.5180703168
H 4.1689746531   -1.4561427585   8.2350013238
H 4.0757469416   -0.1828649453   7.2989403389
O 6.6480209539   4.2696387913   5.6397863521
H 6.2200687328   3.5431886250   6.1672056723
H 7.2496784968   4.7159842999   6.2679220294
O 8.3565400535   4.0777316010   8.0197433911
H 8.4979224571   3.1668372603   7.6624204496
H 8.2998046858   3.9780132348   8.9932445878
O 8.0777504215   -2.6630120565   5.5439256770
H 8.0612680130   -3.5593968832   5.1643758770
H 8.6752348689   -2.1059349683   4.9601785016
O 12.4796723965   3.2441452174   7.0804010482
H 12.9341291779   3.7293528037   7.7954398851
H 12.1657349513   2.3938697149   7.4650768381
O 8.8675596126   1.5668882593   7.0562836740
H 8.2394877015   0.8282867941   7.2261966197
H 9.1454724833   1.5271682142   6.1068483969
O 9.7105436488   1.4611786986   4.4895623210
H 10.6406432664   1.8274205053   4.4287403685
H 9.1191083691   2.0030604060   3.9293586640
O 7.3393826244   -0.6617561866   7.6711635908
H 6.3486987455   -0.7081358105   7.6934692509
H 7.6517976973   -1.4504658924   7.1848953285
O 12.4425937472   5.0757185519   9.3650243891
H 12.8343009518   5.8635038984   9.7771135672
H 11.7439374957   5.3755584379   8.7233402734
O 12.3459212805   0.5011639500   11.6378600266
H 13.2541729240   0.2660352205   11.3634213784
H 12.1717171846   1.4318168065   11.3683275440
O 10.5801129601   -3.3518749475   6.9417649580
H 9.6599032606   -3.2161773808   6.6440958223
H 10.6940677468   -2.7890240806   7.7446424461
O 8.0633341249   0.4517264582   10.1533411747
H 8.7273035462   -0.0585932067   10.6812080173
H 7.9340336377   -0.0166265565   9.3005922606
O 8.7165709078   3.0472111681   10.7219399594
H 8.4039954708   3.1483648276   11.6456805771
H 8.4818912868   2.1269881493   10.4484239984
O 10.0659631893   -0.8705087326   11.4117640576
H 10.9120332842   -0.3597091964   11.5078871847
H 9.7217972425   -1.2386287074   2.2920388479
O 11.4320933770   2.7989313372   10.4710940088
H 10.4900444735   3.0082584561   10.6678405229
H 11.8785321021   3.6325376506   10.1938059800
O 12.0811732415   -2.1225815691   5.0827984594
H 11.6751347412   -2.7008164993   5.7756302378
H 12.7418906479   -2.6313720962   4.5565099074
O 10.9689739549   -1.5771727765   8.9577390137
H 10.5523017374   -1.5610795787   9.8492740641
H 11.1051192720   -0.6343367016   8.6880799825
O 10.6532356186   5.4411605776   7.4404621486
H 9.7624908734   5.0678377959   7.6537797110
H 11.1028706605   4.7665054466   6.8937725564
O 9.7397828181   -1.2309193781   4.1086175746
H 9.6866916132   -0.2517751091   4.2468142880
H 10.6536217072   -1.5184004038   4.3638902250
O 11.2197888333   1.0792229441   8.3572287419
H 10.3476144916   1.2802544909   7.9392791791
H 11.2861935479   1.6110981035   9.1866809116
O 13.4402224271   0.1679848610   5.6356906887
H 13.7092587153   0.2481967453   6.5764262126
H 12.8717628531   -0.6355674302   5.5436788456
O 12.1805409168   2.3458640404   4.5043802639
H 12.3354002755   2.9621821372   5.2513310337
H 12.7098861102   1.5477992810   4.7365952403
O 17.1509697507   -2.6104166717   8.8043407125
H 17.4198631235   -2.3018522341   9.6942197348
H 17.0810355235   -1.7945501705   8.2504860569
O 16.1913853109   -4.1919579477   5.2949288518
H 16.9050712422   -4.8647398545   5.4012207335
H 15.6989031845   -4.2125752067   6.1526515346
O 0.1930489777   -1.5916552709   0.1286430893
H 19.1320450004   -1.9074732092   4.6490198800
H 0.3184883184   -0.8987725032   9.4234518589
O 16.5747802445   -6.5565055889   8.4858939475
H 16.8598195009   -6.1568371811   9.3362107633
H 15.8153803875   -6.0019502007   8.2042919348
O 18.0738821358   -5.9149760677   6.2861074592
H 17.5974737979   -6.3000648235   7.0607072048
H 18.6037558945   -6.6250501267   5.8509103240
O 19.6073172293   0.0773150609   8.4377712462
H 0.2185303298   -0.4204882358   3.5332288396
H 0.3318395031   0.9591147362   4.3288487344
O 14.9658596129   -3.1202823434   11.0723151772
H 14.3702319324   -3.0837997467   10.2876956225
H 15.7113508891   -3.7366512228   10.8834347162
O 17.9004452569   -0.5779665521   10.6089017294
H 18.3464962954   -0.2013948913   9.8192659605
H 16.9804060673   -0.2371198731   10.6678463170
O 13.5140581842   -2.4757231266   8.8566167859
H 12.5484062195   -2.2919137676   8.9405256861
H 13.9300035259   -1.6359235107   8.5547375154
O 17.3534755418   -1.7404497265   5.0108386337
H 16.7353111768   -1.2464061722   4.4221207698
H 16.9678945505   -2.6452506436   5.1262515679
O 14.1648057014   -3.2019474516   3.6717179401
H 14.8650147505   -3.7152995299   4.1339691038
H 14.4229063124   -3.2816124359   12.7131717952
O 14.6415107198   -0.0281952703   8.1964668138
H 15.5704438526   -0.0671390365   7.8565985989
H 14.6812660099   0.3268446482   9.1061527345
O 19.5807661399   -4.2442279667   10.4302179609
H 0.1360862621   -3.2589656035   6.3424640812
H 19.7358605846   -4.3551082275   9.4673352359
O 15.1920562335   -4.2712997432   7.8005477892
H 14.3581709942   -3.8092279116   8.0468709160
H 15.9081033954   -3.7691295958   8.2527807374
O 0.9935951163   -1.6678785808   2.6822111081
H 0.8821473620   -1.5384844835   1.7096506489
H 0.5060407691   -2.5000793966   2.9009666189
O 19.3096945023   -3.9257759227   7.6749806649
H 19.0100528898   -4.6547456648   7.0798593213
H 18.4971462052   -3.4962183879   8.0240740524
O 17.1688618728   -0.3684300560   7.3024993222
H 17.2894732044   -0.7975417329   6.4162911128
H 18.0228152456   0.0273563691   7.5879298090
O 17.0699347609   -4.9605798396   10.8465476161
H 17.0636978370   -5.4729171460   11.6739057182
H 18.0068851230   -4.6322342990   10.7254421772
O 15.1652737000   -0.2816656053   11.0832608396
H 15.2741132712   -0.1373389980   12.0559068792
H 15.0978733369   -1.2609895469   11.0011058683
O 15.1984389464   -0.6468571142   3.7440641376
H 14.7663483151   -1.5332047913   3.7051722847
H 14.6787335760   -0.1362395334   4.4110300474
O 0.8944933575   -1.6765679671   -3.9263431755
H 0.3864595136   -1.1952521155   -4.6075897041
H 1.7296692845   -1.9805915745   -4.3757184580
O 1.8493756361   4.7388070907   -4.7957257402
H 1.2861546651   5.3812206589   -5.2609513264
H 2.7853357611   4.8861224155   -5.1195692181
O 3.2545933294   0.7536977070   0.6115478062
H 2.5329709374   1.2635110356   0.1701542392
H 3.1583609611   0.9864255605   -8.4564403234
O 3.6523773959   1.8257816851   -6.9279900479
H 4.3774274817   1.4163147807   -6.3957629389
H 4.0483194361   2.6302439047   -7.3377597461
O 1.1810367646   4.4680026604   -2.1194803357
H 1.4293939585   4.5340930381   -3.0731787101
H 1.4820831482   5.2888622656   -1.6941129449
O 5.4196904185   -1.6182142066   -4.9434545815
H 5.0339073634   -1.5328702081   -4.0364491289
H 6.2703669920   -2.1009658800   -4.8506578880
O 19.8521036562   -0.1115792951   2.2797524698
H 0.5424055458   -0.5309067155   -2.6214082056
H 18.9552779526   -0.2073749706   1.8846840301
O 1.5433567769   2.0035099694   -5.2704817168
H 1.4555300444   2.9649540785   -5.0860678610
H 2.2635123056   1.9179211467   -5.9453368190
O 4.2696621251   5.1335875520   -5.7750568004
H 4.4631818379   4.8796277803   -6.7004653299
H 5.0862809842   4.9651551286   -5.2493553386
O 2.8300130752   -2.4370690582   -5.5563167595
H 3.7836759985   -2.2146665819   -5.5771194303
H 2.4086527879   -2.1654715211   -6.3987801990
O 3.1048082309   -1.8262124684   -0.3722941196
H 3.1661179673   -0.9744968976   0.1199107958
H 2.1694527568   -2.1062226801   -0.3243400615
O 5.4231466232   2.2390890846   -2.9829731992
H 4.4658795167   2.0010589802   -3.0376583674
H 5.6602531221   2.1806425622   -2.0278911682
O 5.7995000515   0.9756553062   -5.4605053945
H 5.7842100903   1.3315553612   -4.5443419720
H 5.7336509437   -0.0118682934   -5.3915010086
O 2.9474438120   1.2302968938   -3.0333540301
H 2.3861056849   1.3917560596   -3.8282955462
H 2.4329026990   1.4966295280   -2.2357571331
O 5.5690974524   1.9279220047   -0.2289089208
H 4.7471744118   1.4228693038   -0.0077849806
H 6.3317740914   1.3701516087   0.0377333158
O 7.3687210127   2.8633778260   -6.6194859156
H 7.2412818092   3.4943353737   -5.8700235295
H 6.8652017173   2.0545621748   -6.3520983095
O 1.3985557713   2.0170564057   -0.9288866277
H 1.2262673617   2.9368691668   -1.2390732300
H 0.6767306561   1.4242117579   -1.2417678659
O 5.1813790311   3.7413352018   -8.1494786607
H 5.3667139400   3.3557120084   0.9725338402
H 6.0455664818   3.5534712541   -7.7230695005
O 4.5048836675   -0.9850535808   -2.4985677284
H 4.0327881900   -1.4812567226   -1.7816367215
H 3.9395604786   -0.2079789094   -2.7176977063
O 6.5118344908   4.2445248272   -4.3768516931
H 6.0838822697   3.5180746609   -3.8494323729
H 7.1134920337   4.6908703358   -3.7487160159
O 8.2203535904   4.0526176369   -1.9968946541
H 8.3617359940   3.1417232962   -2.3542175956
H 8.1636182227   3.9528992707   -1.0233934574
O 7.9415639584   -2.6881260206   -4.4727123682
H 7.9250815500   -3.5845108473   -4.8522621682
H 8.5390484058   -2.1310489324   -5.0564595437
O 12.3434859335   3.2190312533   -2.9362369971
H 12.7979427148   3.7042388396   -2.2211981602
H 12.0295484882   2.3687557508   -2.5515612072
O 8.7313731495   1.5417742952   -2.9603543713
H 8.1033012384   0.8031728300   -2.7904414256
H 9.0092860202   1.5020542501   -3.9097896484
O 9.5743571857   1.4360647344   -5.5270757243
H 10.5044568034   1.8023065412   -5.5878976768
H 8.9829219060   1.9779464418   -6.0872793812
O 7.2031961613   -0.6868701507   -2.3454744545
H 6.2125122824   -0.7332497746   -2.3231687943
H 7.5156112342   -1.4755798565   -2.8317427167
O 12.3064072842   5.0506045878   -0.6516136562
H 12.6981144887   5.8383899343   -0.2395244781
H 11.6077510327   5.3504444738   -1.2932977718
O 12.2097348174   0.4760499859   1.6212219813
H 13.1179864609   0.2409212564   1.3467833332
H 12.0355307215   1.4067028424   1.3516894987
O 10.4439264970   -3.3769889116   -3.0748730873
H 9.5237167976   -3.2412913449   -3.3725422230
H 10.5578812837   -2.8141380448   -2.2719955991
O 7.9271476618   0.4266124940   0.1367031294
H 8.5911170831   -0.0837071709   0.6645699720
H 7.7978471746   -0.0417405207   -0.7160457847
O 8.5803844447   3.0220972040   0.7053019141
H 8.2678090078   3.1232508635   1.6290425318
H 8.3457048237   2.1018741852   0.4317859531
O 9.9297767263   -0.8956226967   1.3951260123
H 10.7758468211   -0.3848231605   1.4912491395
H 9.5856107794   -1.2637426715   -7.7245991974
O 11.2959069139   2.7738173731   0.4544559635
H 10.3538580104   2.9831444920   0.6512024776
H 11.7423456390   3.6074236865   0.1771679347
O 11.9449867784   -2.1476955332   -4.9338395858
H 11.5389482781   -2.7259304634   -4.2410078075
H 12.6057041848   -2.6564860603   -5.4601281379
O 10.8327874918   -1.6022867406   -1.0588990316
H 10.4161152743   -1.5861935428   -0.1673639811
H 10.9689328089   -0.6594506657   -1.3285580628
O 10.5170491556   5.4160466135   -2.5761758967
H 9.6263044103   5.0427238318   -2.3628583342
H 10.9666841974   4.7413914825   -3.1228654889
O 9.6035963551   -1.2560333422   -5.9080204707
H 9.5505051501   -0.2768890732   -5.7698237572
H 10.5174352441   -1.5435143679   -5.6527478203
O 11.0836023703   1.0541089800   -1.6594093033
H 10.2114280285   1.2551405268   -2.0773588661
H 11.1500070849   1.5859841394   -0.8299571337
O 13.3040359641   0.1428708969   -4.3809473566
H 13.5730722522   0.2230827812   -3.4402118327
H 12.7355763900   -0.6606813943   -4.4729591997
O 12.0443544537   2.3207500763   -5.5122577814
H 12.1992138125   2.9370681731   -4.7653070115
H 12.5736996471   1.5226853169   -5.2800428050
O 17.0147832876   -2.6355306358   -1.2122973328
H 17.2836766604   -2.3269661982   -0.3224183105
H 16.9448490604   -1.8196641346   -1.7661519884
O 16.0551988478   -4.2170719118   -4.7217091934
H 16.7688847791   -4.8898538186   -4.6154173118
H 15.5627167214   -4.2376891708   -3.8639865107
O 0.0568625147   -1.6167692350   -9.8879949559
H 18.9958585373   -1.9325871733   -5.3676181653
H 0.1823018554   -0.9238864673   -0.5931861864
O 16.4385937814   -6.5816195530   -1.5307440977
H 16.7236330378   -6.1819511452   -0.6804272820
H 15.6791939244   -6.0270641648   -1.8123461105
O 17.9376956727   -5.9400900318   -3.7305305860
H 17.4612873348   -6.3251787876   -2.9559308405
H 18.4675694314   -6.6501640908   -4.1657277212
O 19.4711307662   0.0522010968   -1.5788667991
H 0.0823438667   -0.4456021999   -6.4834092057
H 0.1956530401   0.9340007721   -5.6877893108
O 14.8296731499   -3.1453963075   1.0556771319
H 14.2340454693   -3.1089137108   0.2710575773
H 15.5751644260   -3.7617651869   0.8667966709
O 17.7642587939   -0.6030805162   0.5922636842
H 18.2103098324   -0.2265088554   -0.1973720848
H 16.8442196043   -0.2622338372   0.6512082717
O 13.3778717212   -2.5008370907   -1.1600212593
H 12.4122197564   -2.3170277317   -1.0761123591
H 13.7938170629   -1.6610374748   -1.4619005299
O 17.2172890787   -1.7655636906   -5.0057994116
H 16.5991247137   -1.2715201363   -5.5945172755
H 16.8317080874   -2.6703646077   -4.8903864773
O 14.0286192383   -3.2270614157   -6.3449201052
H 14.7288282874   -3.7404134940   -5.8826689415
H 14.2867198493   -3.3067264000   2.6965337499
O 14.5053242567   -0.0533092344   -1.8201712315
H 15.4342573895   -0.0922530006   -2.1600394464
H 14.5450795468   0.3017306841   -0.9104853108
O 19.4445796768   -4.2693419308   0.4135799157
H -0.0001002009   -3.2840795676   -3.6741739641
H 19.5996741215   -4.3802221916   -0.5493028094
O 15.0558697704   -4.2964137073   -2.2160902561
H 14.2219845311   -3.8343418757   -1.9697671293
H 15.7719169324   -3.7942435599   -1.7638573079
O 0.8574086533   -1.6929925449   -7.3344269371
H 0.7459608989   -1.5635984476   -8.3069873964
H 0.3698543060   -2.5251933608   -7.1156714264
O 19.1735080392   -3.9508898868   -2.3416573804
H 18.8738664267   -4.6798596289   -2.9367787240
H 18.3609597421   -3.5213323520   -1.9925639929
O 17.0326754098   -0.3935440201   -2.7141387231
H 17.1532867413   -0.8226556970   -3.6003469324
H 17.8866287825   0.0022424050   -2.4287082362
O 16.9337482978   -4.9856938037   0.8299095708
H 16.9275113739   -5.4980311101   1.6572676729
H 17.8706986600   -4.6573482631   0.7088041319
O 15.0290872369   -0.3067795694   1.0666227943
H 15.1379268081   -0.1624529621   2.0392688340
H 14.9616868738   -1.2861035110   0.9844678230
O 15.0622524833   -0.6719710783   -6.2725739077
H 14.6301618521   -1.5583187554   -6.3114657606
H 14.5425471129   -0.1613534975   -5.6056079978
