181
Unit cell from CRYSTAL C:\Users\Renzetti\Desktop\Tesis\AMORPHOUS_ICE\NH3_AMORFO\nh3_h173_bottom.out for geometry N: 250
O 8.9481293362   1.1134572645   -1.7571965137
H 9.3745920846   0.6382549740   -2.4951260421
H 8.1050650926   1.4884378686   -2.1312104086
O 7.5992200382   -5.2415518933   -2.5968187736
H 8.0910544416   -5.9090432623   -3.1056449328
H 6.6351842350   -5.3366359525   -2.8501913548
O 6.8185827653   -1.2532639901   2.9227930609
H 7.4825878122   -1.7890853465   2.4253994548
H 6.2287708826   -1.4015931131   -6.1363189837
O 5.8001535679   -2.2198315443   -4.5750644406
H 5.1405634191   -1.7752355337   -3.9888278730
H 5.3308858941   -2.9984608750   -4.9562127495
O 8.4738261114   -5.0325745068   0.0256198651
H 8.1578332417   -5.0770341076   -0.9091620817
H 8.1250230798   -5.8207159032   0.4763754906
O 4.3654333736   1.2909609283   -2.4313301213
H 4.8118194159   1.1731524908   -1.5561311572
H 3.5532010718   1.8200237103   -2.2722704536
O -9.5006653596   0.5564107397   5.9239863334
H 9.3472039911   -0.0608970250   -0.5048189940
H -8.6350297089   0.6129026129   5.4586699957
O 8.0146291783   -2.5220503296   -3.0796114681
H 8.0641322442   -3.4882927348   -2.9061750115
H 7.2514989866   -2.3926999731   -3.6978127873
O 5.0945328681   -5.4998442689   -3.3942868273
H 4.8460307150   -5.2272241736   -4.3011413897
H 4.3294192042   -5.2940705198   -2.8079892947
O 6.9359104184   2.0109062175   -3.2238207623
H 5.9741667753   1.8338851481   -3.1662341182
H 7.2696866938   1.7184292815   -4.0975380813
O 7.0089534189   1.3281777095   1.9507474051
H 6.9498648529   0.4746637364   2.4398951710
H 7.9555809664   1.5710806957   1.9307700830
O 4.3107391311   -2.5812498816   -0.5062731674
H 5.2720555621   -2.3912670688   -0.6323612810
H 4.1498919567   -2.5207400519   0.4644343604
O 3.8150810195   -1.2728646166   -2.9434997586
H 3.8819892571   -1.6391880423   -2.0339011265
H 3.9374007146   -0.2907955989   -2.8719603762
O 6.8244857329   -1.6999596761   -0.7371363245
H 7.3157507884   -1.8781199998   -1.5737788558
H 7.3864281334   -1.9966299512   0.0164972081
O 4.3881235897   -2.2931752777   2.2548062371
H 5.2516920206   -1.8368073257   2.4155249007
H 3.6804818075   -1.6959870679   2.5809307333
O 2.0613521138   -3.0617254380   -3.9902418181
H 2.2108160926   -3.7058998559   -3.2563092068
H 2.6270812536   -2.2839837326   -3.7574476762
O 8.4948248814   -2.5796051502   1.2337604666
H 8.5929900086   -3.5041958179   0.9058155799
H 9.2201695869   -2.0222348975   0.8682218238
O 4.0806416178   -4.0410258983   -5.6843070936
H 4.5977318620   -3.7348445178   3.4359076990
H 3.2617959920   -3.8114506205   -5.1938419222
O 5.4215262545   0.5818465780   -0.0685038255
H 5.9674433788   1.0486111053   0.6155652305
H 5.9318840112   -0.2180881943   -0.3348938379
O 3.0116864341   -4.5090649753   -1.8270285171
H 3.5167231618   -3.8121369448   -1.3286099537
H 2.4381121490   -4.9320614125   -1.1578971989
O 1.5005360979   -4.2544311784   0.6820887330
H 1.3848844886   -3.3348931696   0.3379411616
H 1.6340325854   -4.1644300903   1.6490246059
O 1.9497662596   2.5077608895   -1.7830871321
H 2.0025711431   3.3954393793   -2.1796631791
H 1.2837718162   1.9835233635   -2.3204844031
O -2.6324094198   -3.1794526543   0.0570068762
H -3.0552441142   -3.6500821064   0.8007270024
H -2.2422997605   -2.3536095878   0.4245103296
O 1.0591998308   -1.7140595801   -0.2360237140
H 1.7347436505   -1.0095864170   -0.1079362492
H 0.7109918920   -1.6470702648   -1.1603057029
O 0.0244859034   -1.5249949416   -2.7280822306
H -0.9273455434   -1.8359369600   -2.7185340856
H 0.5388859725   -2.0940224611   -3.3355519906
O 2.7365766532   0.4264601058   0.2831262486
H 3.7278541625   0.4198392041   0.2295709212
H 2.4314155951   1.2408263917   -0.1632198018
O -2.5286664308   -5.0271867018   2.3205611982
H -2.9387106357   -5.7947049199   2.7527011758
H -1.8951739474   -5.3611102825   1.6298628795
O -2.0045769013   -0.4851199618   4.6059724740
H -2.9197969052   -0.1995325775   4.4137554013
H -1.9037711322   -1.4209986164   4.3183439629
O -0.3872148468   3.3102973281   -0.1983174230
H 0.4974637674   3.1433699489   -0.5774458038
H -0.4520472033   2.7416676511   0.6057798327
O 2.1482263861   -0.6686552809   2.8066897434
H 1.5591337557   -0.1250100560   3.3871262395
H 2.2372882220   -0.2013854195   1.9480817388
O 1.3961614347   -3.2282337131   3.4105236470
H 1.7702267200   -3.3550004304   4.3078252987
H 1.6611278736   -2.3198594550   3.1251637630
O 0.3251172766   0.7584404632   4.2194814401
H -0.5400945835   0.2959405771   4.3732626478
H 0.0048691002   1.1938675800   -4.9061224315
O -1.3112672591   -2.8223140514   3.3642157014
H -0.3709617230   -3.0875039533   3.4897974916
H -1.8248642203   -3.6261760697   3.1169559032
O -2.1019436106   2.1735392219   -1.9185776745
H -1.6028168147   2.7212258971   -1.2615194848
H -2.7612108655   2.7298041798   -2.3936800175
O -0.6805804096   1.5240675113   1.8247844243
H -0.2109524888   1.4805548304   2.6886229086
H -0.8927462052   0.5920862469   1.5662225309
O -0.9065055682   -5.4794690860   0.2709359146
H 0.0178495376   -5.1594429330   0.4183666383
H -1.3549751482   -4.7781397552   -0.2419919996
O 0.1103387222   1.1665408030   -3.0892497205
H 0.1241874176   0.1843666475   -2.9617808856
H -0.7643187477   1.4958792538   -2.7609449998
O -1.1512680756   -1.1041117200   1.2445954573
H -0.3282795026   -1.3571309357   0.7602405298
H -1.1886401821   -1.6365084657   2.0755262330
O -3.5524360263   -0.0388739050   -1.2800304467
H -3.7473883862   -0.1237647055   -0.3215961200
H -2.9437458738   0.7298244281   -1.4052657900
O -2.4853742567   -2.2653593813   -2.5241303658
H -2.6159390309   -2.8807708896   -1.7716773314
H -2.9554386925   -1.4446546403   -2.2485955407
O -6.8092893441   2.9632325742   2.1785302418
H -7.0015775271   2.6841539546   3.0975269998
H -6.8427860211   2.1380727977   1.6346803231
O -6.0873240503   4.6080723595   -1.3713703125
H -6.7900292305   5.2400119233   -1.0979581988
H -5.4872844928   4.5383494055   -0.5842705641
O 9.3196922911   1.0487457950   -7.7729849896
H -9.1541090690   2.4011830459   -1.7616686290
H 9.8544154635   0.2801227605   1.5045376456
O -5.9333355661   6.7665479303   1.8882799163
H -6.1352865321   6.3359350591   2.7557113480
H -5.2150088993   6.2172622522   1.5100327676
O -7.7144727273   6.4238261340   -0.0135845880
H -7.0834359950   6.6483804053   0.7316750543
H -8.1751039030   7.2399974387   -0.2710784368
O -9.4308763182   0.3921513381   2.0271299745
H 9.4916048885   -0.1428712043   -4.3922170728
H 9.3815920677   -1.5273392167   -3.6054178080
O -4.4034294060   3.2572302117   4.2540828788
H -3.8650553609   3.1889349866   3.4324391031
H -5.1065713843   3.9432805358   4.1252248096
O -7.5436691563   0.9665614840   4.0509333510
H -8.0866911649   0.6304403670   3.3039893234
H -6.6530557336   0.5539925413   4.0238256157
O -3.1766916514   2.5470180671   1.9150073209
H -2.2192802189   2.3087673022   1.9219273154
H -3.6655927485   1.7301803455   1.6631566686
O -7.3504727799   2.1520233663   -1.5744647518
H -6.8133051826   1.6237702388   -2.2121065134
H -6.9202440410   3.0379952050   -1.5042014017
O -4.2131067280   3.4019763673   -3.2012885684
H -4.8525348245   3.9649077656   -2.7185591579
H -3.7805124960   3.3753385178   5.8335806084
O -4.5254475580   0.1874534378   1.3751441180
H -5.4729102269   0.3029137553   1.1127670047
H -4.5197352503   -0.1665716056   2.2861587817
O -8.9060841780   4.6563530424   4.1692341420
H -9.3946116707   3.8469367541   4.4372948739
H -9.1823804644   4.8224982692   3.2439634523
O -4.8075714302   4.4339573961   0.9700185607
H -3.9966830300   3.9043535566   1.1522496206
H -5.5186555667   4.0042638886   1.4990046850
O 8.7143084895   1.1525149559   -5.1607696426
H 8.7495617815   1.0322018604   -6.1401743525
H 9.2524857147   1.9578389417   -4.9639789361
O -9.0132222211   4.3901561790   1.3536664642
H -8.7440117150   5.1409420137   0.7800101488
H -8.1865804942   3.9200584463   1.6093361282
O -7.0851439395   0.7284539872   0.6936945894
H -7.2491095008   1.1734203601   -0.1759646454
H -7.9348644363   0.3777229830   1.0455347471
O -6.2554492177   5.2558767684   4.1606065009
H -6.0000291755   5.7845046010   4.9570125554
H -7.2070017677   4.9993671935   4.2494712371
O -4.7975290735   0.4578475213   4.2939406682
H -4.8610709532   0.3096123437   5.2688819300
H -4.6759938847   1.4328307229   4.2127803206
O -5.3982459672   0.9096947370   -3.0158745229
H -4.9064365797   1.7599613073   -3.0978649759
H -4.8618717228   0.3605548148   -2.3934203318
H -5.8596680096   6.1093269552   -2.8450688762
