36
Unit cell from CRYSTAL Z:\home\aurele\Phd\XTB\Stefano_Master_Thesis_work\nh3_slab_opt.out for geometry N: 94
H 0.3322574957   5.2609937882   -0.9622109597
H -0.3007733806   -5.3566061354   1.1248054562
O -3.0757547748   4.5778346617   -1.1398425160
O 3.1161309629   -4.5387997599   1.2032155256
O -0.3229304668   4.5303200336   -1.1100957077
O 0.2506690942   -4.5655874001   1.1508970669
H -2.0959549186   4.6621449656   -1.1190831458
H 2.1508099924   -4.6682251581   1.2073479566
H -3.3245102388   4.0641063400   -0.3365871090
H 3.4449610258   -4.0766790665   -2.4330466904
H -0.0324308918   4.0488095026   -1.9215616701
H 0.0290993533   -4.0560925583   0.3229430966
H 3.5114966750   3.6670657532   -2.4239603164
H -3.4489065445   -3.6346712608   -0.2742547724
H 0.0809580084   3.5839237869   0.3083464503
H -0.0703574728   -3.6310010276   -1.8756643931
O 3.1205194081   3.1938314095   1.2270370194
O -3.1317379974   -3.1440196577   -1.0810583488
O 0.4035123699   3.1780057963   1.1490581277
O -0.3858361295   -3.2037881843   -1.0480035832
H 2.1323312862   3.1986824434   1.2112122557
H -2.1488496743   -3.1746071155   -1.0556854677
H 0.0803535457   2.2418811660   1.1682077824
H -0.0490212729   -2.2686432305   -1.0413637998
H -3.4463078207   1.6086723594   1.1212304197
H 3.4498959139   -1.5829586613   -0.9797641266
O -0.4518516992   0.6170637947   1.2176501645
O 0.4553887338   -0.6625900224   -0.9931414985
O -3.1340839206   0.6691214023   1.1468693568
O 3.1305713824   -0.6419301698   -0.9785955452
H -1.4432715252   0.6224280666   1.2068670982
H 1.4473643104   -0.6367038490   -0.9697939946
H -0.0655059082   0.1578891576   -2.4212987253
H 0.1363422803   -0.2036719487   -0.1762862251
H -3.4389054345   0.2349964614   0.3113075372
H 3.4721328840   -0.2119170960   -1.8006298631
